Circuit: * C:\Users\Tom\Documents\EE\EE352\Project\LTSPICE\Project.asc

Direct Newton iteration failed to find .op point.  (Use ".option noopiter" to skip.)
Starting Gmin stepping
Gmin = 10
Gmin = 1.07374
Gmin = 0.115292
Gmin = 0.0123794
Gmin = 0.00132923
Gmin = 0.000142725
Gmin = 1.5325e-05
Gmin = 1.6455e-06
Gmin = 1.76685e-07
Gmin = 1.89714e-08
Gmin = 2.03704e-09
Gmin = 2.18725e-10
Gmin = 2.34854e-11
Gmin = 2.52173e-12
Gmin = 2.70769e-13
Gmin = 0
Gmin stepping succeeded in finding the operating point.


Date: Sun Apr  5 14:22:03 2020
Total elapsed time: 34.760 seconds.

tnom = 27
temp = 27
method = modified trap
totiter = 1039620
traniter = 1039268
tranpoints = 500431
accept = 500338
rejected = 93
matrix size = 78
fillins = 81
solver = Normal
Thread vector: 23.5/11.6[7] 7.1/3.7[7] 4.6/2.6[7] 0.3/1.1[1]  2592/500
Matrix Compiler1: 8.82 KB object code size  1.9/1.0/[0.5]
Matrix Compiler2: 9.61 KB object code size  1.2/1.7/[0.6]

