Circuit: * C:\Users\Tom\Documents\EE\EE352\Project\LTSPICE\Project.asc

Direct Newton iteration failed to find .op point.  (Use ".option noopiter" to skip.)
Starting Gmin stepping
Gmin = 10
Gmin = 1.07374
Gmin = 0.115292
Gmin = 0.0123794
Gmin = 0.00132923
Gmin = 0.000142725
Gmin = 1.5325e-05
Gmin = 1.6455e-06
Gmin = 1.76685e-07
Gmin = 1.89714e-08
Gmin = 2.03704e-09
Gmin = 2.18725e-10
Gmin = 2.34854e-11
Gmin = 2.52173e-12
Gmin = 2.70769e-13
Gmin = 0
Gmin stepping succeeded in finding the operating point.


Date: Sun Apr  5 00:14:21 2020
Total elapsed time: 25.313 seconds.

tnom = 27
temp = 27
method = modified trap
totiter = 1009687
traniter = 1009335
tranpoints = 500941
accept = 500480
rejected = 461
matrix size = 64
fillins = 72
solver = Normal
Thread vector: 18.4/8.1[6] 6.1/3.6[6] 3.4/2.1[5] 0.2/0.6[1]  2592/500
Matrix Compiler1: 7.38 KB object code size  1.5/0.8/[0.4]
Matrix Compiler2: 8.13 KB object code size  0.8/1.1/[0.4]

