Circuit: * C:\Users\Tom\Documents\EE\EE352\Project\LTSPICE\Project.asc

Direct Newton iteration failed to find .op point.  (Use ".option noopiter" to skip.)
Starting Gmin stepping
Gmin = 10
Gmin = 1.07374
Gmin = 0.115292
Gmin = 0.0123794
Gmin = 0.00132923
Gmin = 0.000142725
Gmin = 1.5325e-05
Gmin = 1.6455e-06
Gmin = 1.76685e-07
Gmin = 1.89714e-08
Gmin = 2.03704e-09
Gmin = 2.18725e-10
Gmin = 2.34854e-11
Gmin = 2.52173e-12
Gmin = 2.70769e-13
Gmin = 0
Gmin stepping succeeded in finding the operating point.


Date: Sat Apr  4 22:28:12 2020
Total elapsed time: 17.110 seconds.

tnom = 27
temp = 27
method = modified trap
totiter = 1009581
traniter = 1009229
tranpoints = 500903
accept = 500472
rejected = 431
matrix size = 50
fillins = 35
solver = Normal
Thread vector: 12.6/6.6[4] 4.5/2.9[4] 2.1/1.5[4] 0.2/0.5[1]  2592/500
Matrix Compiler1: 4.79 KB object code size  1.0/0.6/[0.3]
Matrix Compiler2: 5.83 KB object code size  0.6/0.8/[0.3]

