Circuit: * C:\Users\Tom\Documents\EE\EE352\Project\LTSPICE\Project.asc

Direct Newton iteration failed to find .op point.  (Use ".option noopiter" to skip.)
Starting Gmin stepping
Gmin = 10
Gmin = 1.07374
Gmin = 0.115292
Gmin = 0.0123794
Gmin = 0.00132923
Gmin = 0.000142725
Gmin = 1.5325e-05
Gmin = 1.6455e-06
Gmin = 1.76685e-07
Gmin = 1.89714e-08
Gmin = 2.03704e-09
Gmin = 2.18725e-10
Gmin = 2.34854e-11
Gmin = 2.52173e-12
Gmin = 2.70769e-13
Gmin = 0
Gmin stepping succeeded in finding the operating point.


Date: Sat Apr  4 16:28:27 2020
Total elapsed time: 9.885 seconds.

tnom = 27
temp = 27
method = modified trap
totiter = 1001627
traniter = 1001272
tranpoints = 500427
accept = 500337
rejected = 90
matrix size = 29
fillins = 17
solver = Normal
Thread vector: 7.5/5.1[2] 1.9/1.5[2] 1.6/1.0[2] 0.1/0.4[1]  2592/500
Matrix Compiler1: 2.37 KB object code size  0.4/0.2/[0.1]
Matrix Compiler2: 3.22 KB object code size  0.3/1.0/[0.3]

