Circuit: * C:\Users\Tom\Documents\EE\EE352\Project\LTSPICE\Project.asc

Direct Newton iteration failed to find .op point.  (Use ".option noopiter" to skip.)
Starting Gmin stepping
Gmin = 10
Gmin = 1.07374
Gmin = 0.115292
Gmin = 0.0123794
Gmin = 0.00132923
Gmin = 0.000142725
Gmin = 1.5325e-05
Gmin = 1.6455e-06
Gmin = 1.76685e-07
Gmin = 1.89714e-08
Gmin = 2.03704e-09
Gmin = 2.18725e-10
Gmin = 2.34854e-11
Gmin = 2.52173e-12
Gmin = 2.70769e-13
Gmin = 0
Gmin stepping succeeded in finding the operating point.


Date: Sun Apr  5 13:21:56 2020
Total elapsed time: 33.155 seconds.

tnom = 27
temp = 27
method = modified trap
totiter = 1059043
traniter = 1058691
tranpoints = 500941
accept = 500480
rejected = 461
matrix size = 78
fillins = 78
solver = Normal
Thread vector: 25.0/12.0[7] 7.1/4.6[7] 4.4/2.5[7] 0.3/1.8[1]  2592/500
Matrix Compiler1: 8.66 KB object code size  1.9/1.0/[0.5]
Matrix Compiler2: 9.56 KB object code size  1.4/1.9/[0.6]

