
**** 03/12/20 11:22:47 ******* PSpice Lite (March 2016) ******* ID# 10813 ****

 ** Profile: "SCHEMATIC1-Modulator"  [ C:\Users\Tom\Documents\EE\EE352\Project\WrapperPart1\WrapperPart1-PSpiceFiles\SCHEMATIC1\Modul


 ****     CIRCUIT DESCRIPTION


******************************************************************************




** Creating circuit file "Modulator.cir" 
** WARNING: THIS AUTOMATICALLY GENERATED FILE MAY BE OVERWRITTEN BY SUBSEQUENT SIMULATIONS

*Libraries: 
* Profile Libraries :
* Local Libraries :
* From [PSPICE NETLIST] section of C:\Users\Tom\cdssetup\OrCAD_PSpice\17.2.0\PSpice.ini file:
.lib "nomd.lib" 

*Analysis directives: 
.TRAN  0 5m 0 100n 
.OPTIONS ADVCONV
.PROBE64 V(alias(*)) I(alias(*)) W(alias(*)) D(alias(*)) NOISE(alias(*)) 
.INC "..\SCHEMATIC1.net" 



**** INCLUDING SCHEMATIC1.net ****
* source WRAPPERPART1
R_Osc_R3         Osc_N03025 N00025  330 TC=0,0 
R_Osc_R4         0 Osc_N02983  330 TC=0,0 
V_Osc_V1         Osc_N02991 0 15Vdc
C_Osc_C2         0 Osc_N02983  4.7n  TC=0,0 
R_Osc_R2         0 Osc_N02857  1k TC=0,0 
X_Osc_U1         Osc_N02983 Osc_N02857 Osc_N02991 Osc_N02877 N00025 OP-27
V_Osc_V2         0 Osc_N02877 15Vdc
C_Osc_C1         Osc_N02983 Osc_N03025  4.7n  TC=0,0 
R_Osc_R1         Osc_N02857 N00025  2.2k TC=0,0 
R_Modulator_R1         N01044 Modulator_N00912  10k TC=0,0 
V_Modulator_V3         0 Modulator_N01082 12Vdc
R_Modulator_Rf         Modulator_N00912 Modulator_N00920  10k TC=0,0 
R_Modulator_R2         N00025 Modulator_N00912  20k TC=0,0 
X_Modulator_U1         0 Modulator_N00912 Modulator_N00884 Modulator_N01082
+  Modulator_N00920 OP-27
V_Modulator_V2         Modulator_N00884 0 12Vdc
D_Modulator_D1         Modulator_N00920 N01069 D1N914 
V_V1         N01044 0  AC 0V
+SIN 0V 1V 2KHz 0 0 0

**** RESUMING Modulator.cir ****
.END

ERROR(ORPSIM-15141): Less than 2 connections at node N01069.
